test/data/source_and_line_to_load/node.glm
// A source with a line to a load

/////////////////////////////////////////////
// BEGIN
/////////////////////////////////////////////

module tape;

clock {
    timestamp '2000-01-01 0:00:00';
    timezone EST+5EDT;
}

module powerflow;

object overhead_line_conductor:100 {
    geometric_mean_radius 0.0244;
    resistance 0.306;
}

object overhead_line_conductor:101 {
    geometric_mean_radius 0.00814;
    resistance 0.592;
}

object line_spacing:200 {
    distance_AB 2.5;
    distance_BC 4.5;
    distance_AC 7.0;
    distance_AN 5.656854;
    distance_BN 4.272002;
    distance_CN 5.0;
}

object line_configuration:300 {
    conductor_A overhead_line_conductor:100;
    conductor_B overhead_line_conductor:100;
    conductor_C overhead_line_conductor:100;
    conductor_N overhead_line_conductor:101;
    spacing line_spacing:200;
}

object load {
    name negativeload;
    phases "ABCN";
    voltage_A +2401.777+0.000j;
    voltage_B -1200.889-2080.000j;
    voltage_C -1200.889+2080.000j;
    constant_power_A -1800000.000-871779.789j;
    constant_power_B -1800000.000-871779.789j;
    constant_power_C -1800000.000-871779.789j;
    nominal_voltage 2400;
}

object overhead_line:12 {
    phases "ABCN";
    from negativeload;
    to load1;
    length 2000;
    configuration line_configuration:300;
}

object load {
    name load1;
    phases "ABCN";
    voltage_A +2401.777+0.000j;
    voltage_B -1200.889-2080.000j;
    voltage_C -1200.889+2080.000j;
    constant_power_A +1800000.000+871779.789j;
    constant_power_B +1800000.000+871779.789j;
    constant_power_C +1800000.000+871779.789j;
    nominal_voltage 2400;
}


object voltdump {
     filename result.csv;
     mode RECT;
}
